platform/dss/EPRI/DPV/K1/triplexlinecodes.dss
New Linecode.4/0_AL_UG nphases=3 r1=0.0917 x1=0.028 r0=0.3861 x0=0.2678 normamps=232 units=kft



New Linecode.1/0_TRIPLEX_3PH nphases=3 rmatrix=[0.201761667 0.018049545 0.018049545 | 0.018049545 0.201761667 0.018049545 | 0.018049545 0.018049545 0.201761667] 
!ohms per 1000 ft
~ xmatrix=[ 0.285770602	0.254451335 0.246486562 | 0.254451335 0.285770602 0.254451335 |  0.246486562 0.254451335 0.285770602]
~ cmatrix=[15 | -12 15 | -12 -12 15] units=kft
~ Normamps=202  {202 1.25 *}
~ units=kft

New Linecode.1/0_TRIPLEX_1PH nphases=3 rmatrix=[0.201761667 0.018049545 0.018049545 | 0.018049545 0.201761667 0.018049545 | 0.018049545 0.018049545 0.201761667] 
!ohms per 1000 ft
~ xmatrix=[ 0.285770602	0.254451335 0.246486562 | 0.254451335 0.285770602 0.254451335 |  0.246486562 0.254451335 0.285770602]
~ cmatrix=[15 | -12 15 | -12 -12 15] units=kft
~ Normamps=202  {202 1.25 *}
~ units=kft
~ neutral= 1
~ kron= y
~ neutral= 1
~ kron= y



!set to 750 
New Linecode.unknown_750  nphases=3
~ rmatrix=[0.044375303 0.018049545 0.018049545 | 0.018049545 0.044375303 0.018049545 | 0.018049545 0.018049545 0.044375303]  
! ohms per 1000 ft
~ xmatrix=[ 0.261509955 0.248345084 0.240380311 | 0.248345084 0.261509955 0.248345084| 0.240380311 0.248345084 0.261509955]
~ cmatrix=[15 | -12 15 | -12 -12 15] units=kft
~ NormAmps=580 {580 1.25 *}  
